/*---------------------------------------------------------------------------*\
| =========                 |                                                 |
| \\      /  F ield         | OpenFOAM: The Open Source CFD Toolbox           |
|  \\    /   O peration     | Version:  1.3                                   |
|   \\  /    A nd           | Web:      http://www.openfoam.org               |
|    \\/     M anipulation  |                                                 |
\*---------------------------------------------------------------------------*/

FoamFile
{
    version         2.0;
    format          ascii;

    root            "";
    case            "";
    instance        "";
    local           "";

    class           dictionary;
    object          fvSolution;
}

// * * * * * * * * * * * * * * * * * * * * * * * * * * * * * * * * * * * * * //

solvers
{
// Uncoupled solution
    Tmod               ICCG 1e-10 0;

// Implicit block-coupled solution

/*    phi    GMRES
    {
        preconditioner
        {
            type        Cholesky;
        }

        nDirections      60;
        minIterations    0;
        maxIterations    100;
        tolerance        1e-08;
        relativeTolerance 0.0;
    };
*/
    phi BiCGStab
    {
        preconditioner
        {
            type        Cholesky;
        }

        minIter          1;
        maxIter          100;
        tolerance        1E-7;
        relTol           0.0;
    };
}

// ************************************************************************* //
