/*---------------------------------------------------------------------------*\
| =========                 |                                                 |
| \\      /  F ield         | OpenFOAM: The Open Source CFD Toolbox           |
|  \\    /   O peration     | Version:  1.3                                   |
|   \\  /    A nd           | Web:      http://www.openfoam.org               |
|    \\/     M anipulation  |                                                 |
\*---------------------------------------------------------------------------*/

FoamFile
{
    version         2.0;
    format          ascii;

    root            "";
    case            "";
    instance        "";
    local           "";

    class           dictionary;
    object          blockMeshDict;
}

// * * * * * * * * * * * * * * * * * * * * * * * * * * * * * * * * * * * * * //

convertToMeters 0.01;

vertices
(
	(0 -1250 0)
	(10 -1250 -8.72653549951335E-02)
	(41 -1250 -0.357787955480048)
	(73.6 -1250 -0.642273012764183)
	(80.6 -1250 -0.703358761260776)
	(92.1 -1250 -0.80371391950518)
	(100 -1250 -0.872653549951335)
	(117 -1250 -1.02100465344306)
	(134 -1250 -1.16935575693479)
	(151 -1250 -1.31770686042652)
	(168 -1250 -1.46605796391824)
	(185 -1250 -1.61440906740997)
	(192.9 -1250 -1.68334869785613)
	(204.5 -1250 -1.78457650965048)
	(211.4 -1250 -1.84478960459712)
	(225 -1250 -1.9634704873905)
	(243.6 -1250 -2.12578404768145)
	(260.6 -1250 -2.27413515117318)
	(275 -1250 -2.39979726236617)
	(287.5 -1250 -2.50887895611009)
	(292.5 -1250 -2.55251163360766)
	(0 -1200 0)
	(10 -1200 -8.72653549951335E-02)
	(41 -1200 -0.357787955480048)
	(73.6 -1200 -0.642273012764183)
	(80.6 -1200 -0.703358761260776)
	(92.1 -1200 -0.80371391950518)
	(100 -1200 -0.872653549951335)
	(117 -1200 -1.02100465344306)
	(134 -1200 -1.16935575693479)
	(151 -1200 -1.31770686042652)
	(168 -1200 -1.46605796391824)
	(185 -1200 -1.61440906740997)
	(192.9 -1200 -1.68334869785613)
	(204.5 -1200 -1.78457650965048)
	(211.4 -1200 -1.84478960459712)
	(225 -1200 -1.9634704873905)
	(243.6 -1200 -2.12578404768145)
	(260.6 -1200 -2.27413515117318)
	(275 -1200 -2.39979726236617)
	(287.5 -1200 -2.50887895611009)
	(292.5 -1200 -2.55251163360766)
	(0 -1150 0)
	(10 -1150 -8.72653549951335E-02)
	(41 -1150 -0.357787955480048)
	(73.6 -1150 -0.642273012764183)
	(80.6 -1150 -0.703358761260776)
	(92.1 -1150 -0.80371391950518)
	(100 -1150 -0.872653549951335)
	(117 -1150 -1.02100465344306)
	(134 -1150 -1.16935575693479)
	(151 -1150 -1.31770686042652)
	(168 -1150 -1.46605796391824)
	(185 -1150 -1.61440906740997)
	(192.9 -1150 -1.68334869785613)
	(204.5 -1150 -1.78457650965048)
	(211.4 -1150 -1.84478960459712)
	(225 -1150 -1.9634704873905)
	(243.6 -1150 -2.12578404768145)
	(260.6 -1150 -2.27413515117318)
	(275 -1150 -2.39979726236617)
	(287.5 -1150 -2.50887895611009)
	(292.5 -1150 -2.55251163360766)
	(0 -1100 0)
	(10 -1100 -8.72653549951335E-02)
	(41 -1100 -0.357787955480048)
	(73.6 -1100 -0.642273012764183)
	(80.6 -1100 -0.703358761260776)
	(92.1 -1100 -0.80371391950518)
	(100 -1100 -0.872653549951335)
	(117 -1100 -1.02100465344306)
	(134 -1100 -1.16935575693479)
	(151 -1100 -1.31770686042652)
	(168 -1100 -1.46605796391824)
	(185 -1100 -1.61440906740997)
	(192.9 -1100 -1.68334869785613)
	(204.5 -1100 -1.78457650965048)
	(211.4 -1100 -1.84478960459712)
	(225 -1100 -1.9634704873905)
	(243.6 -1100 -2.12578404768145)
	(260.6 -1100 -2.27413515117318)
	(275 -1100 -2.39979726236617)
	(287.5 -1100 -2.50887895611009)
	(292.5 -1100 -2.55251163360766)
	(0 -1050 0)
	(10 -1050 -8.72653549951335E-02)
	(41 -1050 -0.357787955480048)
	(73.6 -1050 -0.642273012764183)
	(80.6 -1050 -0.703358761260776)
	(92.1 -1050 -0.80371391950518)
	(100 -1050 -0.872653549951335)
	(117 -1050 -1.02100465344306)
	(134 -1050 -1.16935575693479)
	(151 -1050 -1.31770686042652)
	(168 -1050 -1.46605796391824)
	(185 -1050 -1.61440906740997)
	(192.9 -1050 -1.68334869785613)
	(204.5 -1050 -1.78457650965048)
	(211.4 -1050 -1.84478960459712)
	(225 -1050 -1.9634704873905)
	(243.6 -1050 -2.12578404768145)
	(260.6 -1050 -2.27413515117318)
	(275 -1050 -2.39979726236617)
	(287.5 -1050 -2.50887895611009)
	(292.5 -1050 -2.55251163360766)
	(0 -1000 0)
	(10 -1000 -8.72653549951335E-02)
	(41 -1000 -0.357787955480048)
	(73.6 -1000 -0.642273012764183)
	(80.6 -1000 -0.703358761260776)
	(92.1 -1000 -0.80371391950518)
	(100 -1000 -0.872653549951335)
	(117 -1000 -1.02100465344306)
	(134 -1000 -1.16935575693479)
	(151 -1000 -1.31770686042652)
	(168 -1000 -1.46605796391824)
	(185 -1000 -1.61440906740997)
	(192.9 -1000 -1.68334869785613)
	(204.5 -1000 -1.78457650965048)
	(211.4 -1000 -1.84478960459712)
	(225 -1000 -1.9634704873905)
	(243.6 -1000 -2.12578404768145)
	(260.6 -1000 -2.27413515117318)
	(275 -1000 -2.39979726236617)
	(287.5 -1000 -2.50887895611009)
	(292.5 -1000 -2.55251163360766)
	(0 -950 0)
	(10 -950 -8.72653549951335E-02)
	(41 -950 -0.357787955480048)
	(73.6 -950 -0.642273012764183)
	(80.6 -950 -0.703358761260776)
	(92.1 -950 -0.80371391950518)
	(100 -950 -0.872653549951335)
	(117 -950 -1.02100465344306)
	(134 -950 -1.16935575693479)
	(151 -950 -1.31770686042652)
	(168 -950 -1.46605796391824)
	(185 -950 -1.61440906740997)
	(192.9 -950 -1.68334869785613)
	(204.5 -950 -1.78457650965048)
	(211.4 -950 -1.84478960459712)
	(225 -950 -1.9634704873905)
	(243.6 -950 -2.12578404768145)
	(260.6 -950 -2.27413515117318)
	(275 -950 -2.39979726236617)
	(287.5 -950 -2.50887895611009)
	(292.5 -950 -2.55251163360766)
	(0 -900 0)
	(10 -900 -8.72653549951335E-02)
	(41 -900 -0.357787955480048)
	(73.6 -900 -0.642273012764183)
	(80.6 -900 -0.703358761260776)
	(92.1 -900 -0.80371391950518)
	(100 -900 -0.872653549951335)
	(117 -900 -1.02100465344306)
	(134 -900 -1.16935575693479)
	(151 -900 -1.31770686042652)
	(168 -900 -1.46605796391824)
	(185 -900 -1.61440906740997)
	(192.9 -900 -1.68334869785613)
	(204.5 -900 -1.78457650965048)
	(211.4 -900 -1.84478960459712)
	(225 -900 -1.9634704873905)
	(243.6 -900 -2.12578404768145)
	(260.6 -900 -2.27413515117318)
	(275 -900 -2.39979726236617)
	(287.5 -900 -2.50887895611009)
	(292.5 -900 -2.55251163360766)
	(0 -850 0)
	(10 -850 -8.72653549951335E-02)
	(41 -850 -0.357787955480048)
	(73.6 -850 -0.642273012764183)
	(80.6 -850 -0.703358761260776)
	(92.1 -850 -0.80371391950518)
	(100 -850 -0.872653549951335)
	(117 -850 -1.02100465344306)
	(134 -850 -1.16935575693479)
	(151 -850 -1.31770686042652)
	(168 -850 -1.46605796391824)
	(185 -850 -1.61440906740997)
	(192.9 -850 -1.68334869785613)
	(204.5 -850 -1.78457650965048)
	(211.4 -850 -1.84478960459712)
	(225 -850 -1.9634704873905)
	(243.6 -850 -2.12578404768145)
	(260.6 -850 -2.27413515117318)
	(275 -850 -2.39979726236617)
	(287.5 -850 -2.50887895611009)
	(292.5 -850 -2.55251163360766)
	(0 -800 0)
	(10 -800 -8.72653549951335E-02)
	(41 -800 -0.357787955480048)
	(73.6 -800 -0.642273012764183)
	(80.6 -800 -0.703358761260776)
	(92.1 -800 -0.80371391950518)
	(100 -800 -0.872653549951335)
	(117 -800 -1.02100465344306)
	(134 -800 -1.16935575693479)
	(151 -800 -1.31770686042652)
	(168 -800 -1.46605796391824)
	(185 -800 -1.61440906740997)
	(192.9 -800 -1.68334869785613)
	(204.5 -800 -1.78457650965048)
	(211.4 -800 -1.84478960459712)
	(225 -800 -1.9634704873905)
	(243.6 -800 -2.12578404768145)
	(260.6 -800 -2.27413515117318)
	(275 -800 -2.39979726236617)
	(287.5 -800 -2.50887895611009)
	(292.5 -800 -2.55251163360766)
	(0 -750 0)
	(10 -750 -8.72653549951335E-02)
	(41 -750 -0.357787955480048)
	(73.6 -750 -0.642273012764183)
	(80.6 -750 -0.703358761260776)
	(92.1 -750 -0.80371391950518)
	(100 -750 -0.872653549951335)
	(117 -750 -1.02100465344306)
	(134 -750 -1.16935575693479)
	(151 -750 -1.31770686042652)
	(168 -750 -1.46605796391824)
	(185 -750 -1.61440906740997)
	(192.9 -750 -1.68334869785613)
	(204.5 -750 -1.78457650965048)
	(211.4 -750 -1.84478960459712)
	(225 -750 -1.9634704873905)
	(243.6 -750 -2.12578404768145)
	(260.6 -750 -2.27413515117318)
	(275 -750 -2.39979726236617)
	(287.5 -750 -2.50887895611009)
	(292.5 -750 -2.55251163360766)
	(0 -700 0)
	(10 -700 -8.72653549951335E-02)
	(41 -700 -0.357787955480048)
	(73.6 -700 -0.642273012764183)
	(80.6 -700 -0.703358761260776)
	(92.1 -700 -0.80371391950518)
	(100 -700 -0.872653549951335)
	(117 -700 -1.02100465344306)
	(134 -700 -1.16935575693479)
	(151 -700 -1.31770686042652)
	(168 -700 -1.46605796391824)
	(185 -700 -1.61440906740997)
	(192.9 -700 -1.68334869785613)
	(204.5 -700 -1.78457650965048)
	(211.4 -700 -1.84478960459712)
	(225 -700 -1.9634704873905)
	(243.6 -700 -2.12578404768145)
	(260.6 -700 -2.27413515117318)
	(275 -700 -2.39979726236617)
	(287.5 -700 -2.50887895611009)
	(292.5 -700 -2.55251163360766)
	(0 -650 0)
	(10 -650 -8.72653549951335E-02)
	(41 -650 -0.357787955480048)
	(73.6 -650 -0.642273012764183)
	(80.6 -650 -0.703358761260776)
	(92.1 -650 -0.80371391950518)
	(100 -650 -0.872653549951335)
	(117 -650 -1.02100465344306)
	(134 -650 -1.16935575693479)
	(151 -650 -1.31770686042652)
	(168 -650 -1.46605796391824)
	(185 -650 -1.61440906740997)
	(192.9 -650 -1.68334869785613)
	(204.5 -650 -1.78457650965048)
	(211.4 -650 -1.84478960459712)
	(225 -650 -1.9634704873905)
	(243.6 -650 -2.12578404768145)
	(260.6 -650 -2.27413515117318)
	(275 -650 -2.39979726236617)
	(287.5 -650 -2.50887895611009)
	(292.5 -650 -2.55251163360766)
	(0 -600 0)
	(10 -600 -8.72653549951335E-02)
	(41 -600 -0.357787955480048)
	(73.6 -600 -0.642273012764183)
	(80.6 -600 -0.703358761260776)
	(92.1 -600 -0.80371391950518)
	(100 -600 -0.872653549951335)
	(117 -600 -1.02100465344306)
	(134 -600 -1.16935575693479)
	(151 -600 -1.31770686042652)
	(168 -600 -1.46605796391824)
	(185 -600 -1.61440906740997)
	(192.9 -600 -1.68334869785613)
	(204.5 -600 -1.78457650965048)
	(211.4 -600 -1.84478960459712)
	(225 -600 -1.9634704873905)
	(243.6 -600 -2.12578404768145)
	(260.6 -600 -2.27413515117318)
	(275 -600 -2.39979726236617)
	(287.5 -600 -2.50887895611009)
	(292.5 -600 -2.55251163360766)
	(0 -550 0)
	(10 -550 -8.72653549951335E-02)
	(41 -550 -0.357787955480048)
	(73.6 -550 -0.642273012764183)
	(80.6 -550 -0.703358761260776)
	(92.1 -550 -0.80371391950518)
	(100 -550 -0.872653549951335)
	(117 -550 -1.02100465344306)
	(134 -550 -1.16935575693479)
	(151 -550 -1.31770686042652)
	(168 -550 -1.46605796391824)
	(185 -550 -1.61440906740997)
	(192.9 -550 -1.68334869785613)
	(204.5 -550 -1.78457650965048)
	(211.4 -550 -1.84478960459712)
	(225 -550 -1.9634704873905)
	(243.6 -550 -2.12578404768145)
	(260.6 -550 -2.27413515117318)
	(275 -550 -2.39979726236617)
	(287.5 -550 -2.50887895611009)
	(292.5 -550 -2.55251163360766)
	(0 -500 0)
	(10 -500 -8.72653549951335E-02)
	(41 -500 -0.357787955480048)
	(73.6 -500 -0.642273012764183)
	(80.6 -500 -0.703358761260776)
	(92.1 -500 -0.80371391950518)
	(100 -500 -0.872653549951335)
	(117 -500 -1.02100465344306)
	(134 -500 -1.16935575693479)
	(151 -500 -1.31770686042652)
	(168 -500 -1.46605796391824)
	(185 -500 -1.61440906740997)
	(192.9 -500 -1.68334869785613)
	(204.5 -500 -1.78457650965048)
	(211.4 -500 -1.84478960459712)
	(225 -500 -1.9634704873905)
	(243.6 -500 -2.12578404768145)
	(260.6 -500 -2.27413515117318)
	(275 -500 -2.39979726236617)
	(287.5 -500 -2.50887895611009)
	(292.5 -500 -2.55251163360766)
	(0 -450 0)
	(10 -450 -8.72653549951335E-02)
	(41 -450 -0.357787955480048)
	(73.6 -450 -0.642273012764183)
	(80.6 -450 -0.703358761260776)
	(92.1 -450 -0.80371391950518)
	(100 -450 -0.872653549951335)
	(117 -450 -1.02100465344306)
	(134 -450 -1.16935575693479)
	(151 -450 -1.31770686042652)
	(168 -450 -1.46605796391824)
	(185 -450 -1.61440906740997)
	(192.9 -450 -1.68334869785613)
	(204.5 -450 -1.78457650965048)
	(211.4 -450 -1.84478960459712)
	(225 -450 -1.9634704873905)
	(243.6 -450 -2.12578404768145)
	(260.6 -450 -2.27413515117318)
	(275 -450 -2.39979726236617)
	(287.5 -450 -2.50887895611009)
	(292.5 -450 -2.55251163360766)
	(0 -400 0)
	(10 -400 -8.72653549951335E-02)
	(41 -400 -0.357787955480048)
	(73.6 -400 -0.642273012764183)
	(80.6 -400 -0.703358761260776)
	(92.1 -400 -0.80371391950518)
	(100 -400 -0.872653549951335)
	(117 -400 -1.02100465344306)
	(134 -400 -1.16935575693479)
	(151 -400 -1.31770686042652)
	(168 -400 -1.46605796391824)
	(185 -400 -1.61440906740997)
	(192.9 -400 -1.68334869785613)
	(204.5 -400 -1.78457650965048)
	(211.4 -400 -1.84478960459712)
	(225 -400 -1.9634704873905)
	(243.6 -400 -2.12578404768145)
	(260.6 -400 -2.27413515117318)
	(275 -400 -2.39979726236617)
	(287.5 -400 -2.50887895611009)
	(292.5 -400 -2.55251163360766)
	(0 -350 0)
	(10 -350 -8.72653549951335E-02)
	(41 -350 -0.357787955480048)
	(73.6 -350 -0.642273012764183)
	(80.6 -350 -0.703358761260776)
	(92.1 -350 -0.80371391950518)
	(100 -350 -0.872653549951335)
	(117 -350 -1.02100465344306)
	(134 -350 -1.16935575693479)
	(151 -350 -1.31770686042652)
	(168 -350 -1.46605796391824)
	(185 -350 -1.61440906740997)
	(192.9 -350 -1.68334869785613)
	(204.5 -350 -1.78457650965048)
	(211.4 -350 -1.84478960459712)
	(225 -350 -1.9634704873905)
	(243.6 -350 -2.12578404768145)
	(260.6 -350 -2.27413515117318)
	(275 -350 -2.39979726236617)
	(287.5 -350 -2.50887895611009)
	(292.5 -350 -2.55251163360766)
	(0 -300 0)
	(10 -300 -8.72653549951335E-02)
	(41 -300 -0.357787955480048)
	(73.6 -300 -0.642273012764183)
	(80.6 -300 -0.703358761260776)
	(92.1 -300 -0.80371391950518)
	(100 -300 -0.872653549951335)
	(117 -300 -1.02100465344306)
	(134 -300 -1.16935575693479)
	(151 -300 -1.31770686042652)
	(168 -300 -1.46605796391824)
	(185 -300 -1.61440906740997)
	(192.9 -300 -1.68334869785613)
	(204.5 -300 -1.78457650965048)
	(211.4 -300 -1.84478960459712)
	(225 -300 -1.9634704873905)
	(243.6 -300 -2.12578404768145)
	(260.6 -300 -2.27413515117318)
	(275 -300 -2.39979726236617)
	(287.5 -300 -2.50887895611009)
	(292.5 -300 -2.55251163360766)
	(0 -250 0)
	(10 -250 -8.72653549951335E-02)
	(41 -250 -0.357787955480048)
	(73.6 -250 -0.642273012764183)
	(80.6 -250 -0.703358761260776)
	(92.1 -250 -0.80371391950518)
	(100 -250 -0.872653549951335)
	(117 -250 -1.02100465344306)
	(134 -250 -1.16935575693479)
	(151 -250 -1.31770686042652)
	(168 -250 -1.46605796391824)
	(185 -250 -1.61440906740997)
	(192.9 -250 -1.68334869785613)
	(204.5 -250 -1.78457650965048)
	(211.4 -250 -1.84478960459712)
	(225 -250 -1.9634704873905)
	(243.6 -250 -2.12578404768145)
	(260.6 -250 -2.27413515117318)
	(275 -250 -2.39979726236617)
	(287.5 -250 -2.50887895611009)
	(292.5 -250 -2.55251163360766)
	(0 -200 0)
	(10 -200 -8.72653549951335E-02)
	(41 -200 -0.357787955480048)
	(73.6 -200 -0.642273012764183)
	(80.6 -200 -0.703358761260776)
	(92.1 -200 -0.80371391950518)
	(100 -200 -0.872653549951335)
	(117 -200 -1.02100465344306)
	(134 -200 -1.16935575693479)
	(151 -200 -1.31770686042652)
	(168 -200 -1.46605796391824)
	(185 -200 -1.61440906740997)
	(192.9 -200 -1.68334869785613)
	(204.5 -200 -1.78457650965048)
	(211.4 -200 -1.84478960459712)
	(225 -200 -1.9634704873905)
	(243.6 -200 -2.12578404768145)
	(260.6 -200 -2.27413515117318)
	(275 -200 -2.39979726236617)
	(287.5 -200 -2.50887895611009)
	(292.5 -200 -2.55251163360766)
	(0 -150 0)
	(10 -150 -8.72653549951335E-02)
	(41 -150 -0.357787955480048)
	(73.6 -150 -0.642273012764183)
	(80.6 -150 -0.703358761260776)
	(92.1 -150 -0.80371391950518)
	(100 -150 -0.872653549951335)
	(117 -150 -1.02100465344306)
	(134 -150 -1.16935575693479)
	(151 -150 -1.31770686042652)
	(168 -150 -1.46605796391824)
	(185 -150 -1.61440906740997)
	(192.9 -150 -1.68334869785613)
	(204.5 -150 -1.78457650965048)
	(211.4 -150 -1.84478960459712)
	(225 -150 -1.9634704873905)
	(243.6 -150 -2.12578404768145)
	(260.6 -150 -2.27413515117318)
	(275 -150 -2.39979726236617)
	(287.5 -150 -2.50887895611009)
	(292.5 -150 -2.55251163360766)
	(0 -100 0)
	(10 -100 -8.72653549951335E-02)
	(41 -100 -0.357787955480048)
	(73.6 -100 -0.642273012764183)
	(80.6 -100 -0.703358761260776)
	(92.1 -100 -0.80371391950518)
	(100 -100 -0.872653549951335)
	(117 -100 -1.02100465344306)
	(134 -100 -1.16935575693479)
	(151 -100 -1.31770686042652)
	(168 -100 -1.46605796391824)
	(185 -100 -1.61440906740997)
	(192.9 -100 -1.68334869785613)
	(204.5 -100 -1.78457650965048)
	(211.4 -100 -1.84478960459712)
	(225 -100 -1.9634704873905)
	(243.6 -100 -2.12578404768145)
	(260.6 -100 -2.27413515117318)
	(275 -100 -2.39979726236617)
	(287.5 -100 -2.50887895611009)
	(292.5 -100 -2.55251163360766)
	(0 -50 0)
	(10 -50 -8.72653549951335E-02)
	(41 -50 -0.357787955480048)
	(73.6 -50 -0.642273012764183)
	(80.6 -50 -0.703358761260776)
	(92.1 -50 -0.80371391950518)
	(100 -50 -0.872653549951335)
	(117 -50 -1.02100465344306)
	(134 -50 -1.16935575693479)
	(151 -50 -1.31770686042652)
	(168 -50 -1.46605796391824)
	(185 -50 -1.61440906740997)
	(192.9 -50 -1.68334869785613)
	(204.5 -50 -1.78457650965048)
	(211.4 -50 -1.84478960459712)
	(225 -50 -1.9634704873905)
	(243.6 -50 -2.12578404768145)
	(260.6 -50 -2.27413515117318)
	(275 -50 -2.39979726236617)
	(287.5 -50 -2.50887895611009)
	(292.5 -50 -2.55251163360766)
	(0 0 0)
	(10 0 -8.72653549951335E-02)
	(41 0 -0.357787955480048)
	(73.6 0 -0.642273012764183)
	(80.6 0 -0.703358761260776)
	(92.1 0 -0.80371391950518)
	(100 0 -0.872653549951335)
	(117 0 -1.02100465344306)
	(134 0 -1.16935575693479)
	(151 0 -1.31770686042652)
	(168 0 -1.46605796391824)
	(185 0 -1.61440906740997)
	(192.9 0 -1.68334869785613)
	(204.5 0 -1.78457650965048)
	(211.4 0 -1.84478960459712)
	(225 0 -1.9634704873905)
	(243.6 0 -2.12578404768145)
	(260.6 0 -2.27413515117318)
	(275 0 -2.39979726236617)
	(287.5 0 -2.50887895611009)
	(292.5 0 -2.55251163360766)
	(0 50 0)
	(10 50 -8.72653549951335E-02)
	(41 50 -0.357787955480048)
	(73.6 50 -0.642273012764183)
	(80.6 50 -0.703358761260776)
	(92.1 50 -0.80371391950518)
	(100 50 -0.872653549951335)
	(117 50 -1.02100465344306)
	(134 50 -1.16935575693479)
	(151 50 -1.31770686042652)
	(168 50 -1.46605796391824)
	(185 50 -1.61440906740997)
	(192.9 50 -1.68334869785613)
	(204.5 50 -1.78457650965048)
	(211.4 50 -1.84478960459712)
	(225 50 -1.9634704873905)
	(243.6 50 -2.12578404768145)
	(260.6 50 -2.27413515117318)
	(275 50 -2.39979726236617)
	(287.5 50 -2.50887895611009)
	(292.5 50 -2.55251163360766)
	(0 100 0)
	(10 100 -8.72653549951335E-02)
	(41 100 -0.357787955480048)
	(73.6 100 -0.642273012764183)
	(80.6 100 -0.703358761260776)
	(92.1 100 -0.80371391950518)
	(100 100 -0.872653549951335)
	(117 100 -1.02100465344306)
	(134 100 -1.16935575693479)
	(151 100 -1.31770686042652)
	(168 100 -1.46605796391824)
	(185 100 -1.61440906740997)
	(192.9 100 -1.68334869785613)
	(204.5 100 -1.78457650965048)
	(211.4 100 -1.84478960459712)
	(225 100 -1.9634704873905)
	(243.6 100 -2.12578404768145)
	(260.6 100 -2.27413515117318)
	(275 100 -2.39979726236617)
	(287.5 100 -2.50887895611009)
	(292.5 100 -2.55251163360766)
	(0 150 0)
	(10 150 -8.72653549951335E-02)
	(41 150 -0.357787955480048)
	(73.6 150 -0.642273012764183)
	(80.6 150 -0.703358761260776)
	(92.1 150 -0.80371391950518)
	(100 150 -0.872653549951335)
	(117 150 -1.02100465344306)
	(134 150 -1.16935575693479)
	(151 150 -1.31770686042652)
	(168 150 -1.46605796391824)
	(185 150 -1.61440906740997)
	(192.9 150 -1.68334869785613)
	(204.5 150 -1.78457650965048)
	(211.4 150 -1.84478960459712)
	(225 150 -1.9634704873905)
	(243.6 150 -2.12578404768145)
	(260.6 150 -2.27413515117318)
	(275 150 -2.39979726236617)
	(287.5 150 -2.50887895611009)
	(292.5 150 -2.55251163360766)
	(0 200 0)
	(10 200 -8.72653549951335E-02)
	(41 200 -0.357787955480048)
	(73.6 200 -0.642273012764183)
	(80.6 200 -0.703358761260776)
	(92.1 200 -0.80371391950518)
	(100 200 -0.872653549951335)
	(117 200 -1.02100465344306)
	(134 200 -1.16935575693479)
	(151 200 -1.31770686042652)
	(168 200 -1.46605796391824)
	(185 200 -1.61440906740997)
	(192.9 200 -1.68334869785613)
	(204.5 200 -1.78457650965048)
	(211.4 200 -1.84478960459712)
	(225 200 -1.9634704873905)
	(243.6 200 -2.12578404768145)
	(260.6 200 -2.27413515117318)
	(275 200 -2.39979726236617)
	(287.5 200 -2.50887895611009)
	(292.5 200 -2.55251163360766)
	(0 -1250 0)
	(10 -1250 8.72653549951335E-02)
	(41 -1250 0.357787955480048)
	(73.6 -1250 0.642273012764183)
	(80.6 -1250 0.703358761260776)
	(92.1 -1250 0.80371391950518)
	(100 -1250 0.872653549951335)
	(117 -1250 1.02100465344306)
	(134 -1250 1.16935575693479)
	(151 -1250 1.31770686042652)
	(168 -1250 1.46605796391824)
	(185 -1250 1.61440906740997)
	(192.9 -1250 1.68334869785613)
	(204.5 -1250 1.78457650965048)
	(211.4 -1250 1.84478960459712)
	(225 -1250 1.9634704873905)
	(243.6 -1250 2.12578404768145)
	(260.6 -1250 2.27413515117318)
	(275 -1250 2.39979726236617)
	(287.5 -1250 2.50887895611009)
	(292.5 -1250 2.55251163360766)
	(0 -1200 0)
	(10 -1200 8.72653549951335E-02)
	(41 -1200 0.357787955480048)
	(73.6 -1200 0.642273012764183)
	(80.6 -1200 0.703358761260776)
	(92.1 -1200 0.80371391950518)
	(100 -1200 0.872653549951335)
	(117 -1200 1.02100465344306)
	(134 -1200 1.16935575693479)
	(151 -1200 1.31770686042652)
	(168 -1200 1.46605796391824)
	(185 -1200 1.61440906740997)
	(192.9 -1200 1.68334869785613)
	(204.5 -1200 1.78457650965048)
	(211.4 -1200 1.84478960459712)
	(225 -1200 1.9634704873905)
	(243.6 -1200 2.12578404768145)
	(260.6 -1200 2.27413515117318)
	(275 -1200 2.39979726236617)
	(287.5 -1200 2.50887895611009)
	(292.5 -1200 2.55251163360766)
	(0 -1150 0)
	(10 -1150 8.72653549951335E-02)
	(41 -1150 0.357787955480048)
	(73.6 -1150 0.642273012764183)
	(80.6 -1150 0.703358761260776)
	(92.1 -1150 0.80371391950518)
	(100 -1150 0.872653549951335)
	(117 -1150 1.02100465344306)
	(134 -1150 1.16935575693479)
	(151 -1150 1.31770686042652)
	(168 -1150 1.46605796391824)
	(185 -1150 1.61440906740997)
	(192.9 -1150 1.68334869785613)
	(204.5 -1150 1.78457650965048)
	(211.4 -1150 1.84478960459712)
	(225 -1150 1.9634704873905)
	(243.6 -1150 2.12578404768145)
	(260.6 -1150 2.27413515117318)
	(275 -1150 2.39979726236617)
	(287.5 -1150 2.50887895611009)
	(292.5 -1150 2.55251163360766)
	(0 -1100 0)
	(10 -1100 8.72653549951335E-02)
	(41 -1100 0.357787955480048)
	(73.6 -1100 0.642273012764183)
	(80.6 -1100 0.703358761260776)
	(92.1 -1100 0.80371391950518)
	(100 -1100 0.872653549951335)
	(117 -1100 1.02100465344306)
	(134 -1100 1.16935575693479)
	(151 -1100 1.31770686042652)
	(168 -1100 1.46605796391824)
	(185 -1100 1.61440906740997)
	(192.9 -1100 1.68334869785613)
	(204.5 -1100 1.78457650965048)
	(211.4 -1100 1.84478960459712)
	(225 -1100 1.9634704873905)
	(243.6 -1100 2.12578404768145)
	(260.6 -1100 2.27413515117318)
	(275 -1100 2.39979726236617)
	(287.5 -1100 2.50887895611009)
	(292.5 -1100 2.55251163360766)
	(0 -1050 0)
	(10 -1050 8.72653549951335E-02)
	(41 -1050 0.357787955480048)
	(73.6 -1050 0.642273012764183)
	(80.6 -1050 0.703358761260776)
	(92.1 -1050 0.80371391950518)
	(100 -1050 0.872653549951335)
	(117 -1050 1.02100465344306)
	(134 -1050 1.16935575693479)
	(151 -1050 1.31770686042652)
	(168 -1050 1.46605796391824)
	(185 -1050 1.61440906740997)
	(192.9 -1050 1.68334869785613)
	(204.5 -1050 1.78457650965048)
	(211.4 -1050 1.84478960459712)
	(225 -1050 1.9634704873905)
	(243.6 -1050 2.12578404768145)
	(260.6 -1050 2.27413515117318)
	(275 -1050 2.39979726236617)
	(287.5 -1050 2.50887895611009)
	(292.5 -1050 2.55251163360766)
	(0 -1000 0)
	(10 -1000 8.72653549951335E-02)
	(41 -1000 0.357787955480048)
	(73.6 -1000 0.642273012764183)
	(80.6 -1000 0.703358761260776)
	(92.1 -1000 0.80371391950518)
	(100 -1000 0.872653549951335)
	(117 -1000 1.02100465344306)
	(134 -1000 1.16935575693479)
	(151 -1000 1.31770686042652)
	(168 -1000 1.46605796391824)
	(185 -1000 1.61440906740997)
	(192.9 -1000 1.68334869785613)
	(204.5 -1000 1.78457650965048)
	(211.4 -1000 1.84478960459712)
	(225 -1000 1.9634704873905)
	(243.6 -1000 2.12578404768145)
	(260.6 -1000 2.27413515117318)
	(275 -1000 2.39979726236617)
	(287.5 -1000 2.50887895611009)
	(292.5 -1000 2.55251163360766)
	(0 -950 0)
	(10 -950 8.72653549951335E-02)
	(41 -950 0.357787955480048)
	(73.6 -950 0.642273012764183)
	(80.6 -950 0.703358761260776)
	(92.1 -950 0.80371391950518)
	(100 -950 0.872653549951335)
	(117 -950 1.02100465344306)
	(134 -950 1.16935575693479)
	(151 -950 1.31770686042652)
	(168 -950 1.46605796391824)
	(185 -950 1.61440906740997)
	(192.9 -950 1.68334869785613)
	(204.5 -950 1.78457650965048)
	(211.4 -950 1.84478960459712)
	(225 -950 1.9634704873905)
	(243.6 -950 2.12578404768145)
	(260.6 -950 2.27413515117318)
	(275 -950 2.39979726236617)
	(287.5 -950 2.50887895611009)
	(292.5 -950 2.55251163360766)
	(0 -900 0)
	(10 -900 8.72653549951335E-02)
	(41 -900 0.357787955480048)
	(73.6 -900 0.642273012764183)
	(80.6 -900 0.703358761260776)
	(92.1 -900 0.80371391950518)
	(100 -900 0.872653549951335)
	(117 -900 1.02100465344306)
	(134 -900 1.16935575693479)
	(151 -900 1.31770686042652)
	(168 -900 1.46605796391824)
	(185 -900 1.61440906740997)
	(192.9 -900 1.68334869785613)
	(204.5 -900 1.78457650965048)
	(211.4 -900 1.84478960459712)
	(225 -900 1.9634704873905)
	(243.6 -900 2.12578404768145)
	(260.6 -900 2.27413515117318)
	(275 -900 2.39979726236617)
	(287.5 -900 2.50887895611009)
	(292.5 -900 2.55251163360766)
	(0 -850 0)
	(10 -850 8.72653549951335E-02)
	(41 -850 0.357787955480048)
	(73.6 -850 0.642273012764183)
	(80.6 -850 0.703358761260776)
	(92.1 -850 0.80371391950518)
	(100 -850 0.872653549951335)
	(117 -850 1.02100465344306)
	(134 -850 1.16935575693479)
	(151 -850 1.31770686042652)
	(168 -850 1.46605796391824)
	(185 -850 1.61440906740997)
	(192.9 -850 1.68334869785613)
	(204.5 -850 1.78457650965048)
	(211.4 -850 1.84478960459712)
	(225 -850 1.9634704873905)
	(243.6 -850 2.12578404768145)
	(260.6 -850 2.27413515117318)
	(275 -850 2.39979726236617)
	(287.5 -850 2.50887895611009)
	(292.5 -850 2.55251163360766)
	(0 -800 0)
	(10 -800 8.72653549951335E-02)
	(41 -800 0.357787955480048)
	(73.6 -800 0.642273012764183)
	(80.6 -800 0.703358761260776)
	(92.1 -800 0.80371391950518)
	(100 -800 0.872653549951335)
	(117 -800 1.02100465344306)
	(134 -800 1.16935575693479)
	(151 -800 1.31770686042652)
	(168 -800 1.46605796391824)
	(185 -800 1.61440906740997)
	(192.9 -800 1.68334869785613)
	(204.5 -800 1.78457650965048)
	(211.4 -800 1.84478960459712)
	(225 -800 1.9634704873905)
	(243.6 -800 2.12578404768145)
	(260.6 -800 2.27413515117318)
	(275 -800 2.39979726236617)
	(287.5 -800 2.50887895611009)
	(292.5 -800 2.55251163360766)
	(0 -750 0)
	(10 -750 8.72653549951335E-02)
	(41 -750 0.357787955480048)
	(73.6 -750 0.642273012764183)
	(80.6 -750 0.703358761260776)
	(92.1 -750 0.80371391950518)
	(100 -750 0.872653549951335)
	(117 -750 1.02100465344306)
	(134 -750 1.16935575693479)
	(151 -750 1.31770686042652)
	(168 -750 1.46605796391824)
	(185 -750 1.61440906740997)
	(192.9 -750 1.68334869785613)
	(204.5 -750 1.78457650965048)
	(211.4 -750 1.84478960459712)
	(225 -750 1.9634704873905)
	(243.6 -750 2.12578404768145)
	(260.6 -750 2.27413515117318)
	(275 -750 2.39979726236617)
	(287.5 -750 2.50887895611009)
	(292.5 -750 2.55251163360766)
	(0 -700 0)
	(10 -700 8.72653549951335E-02)
	(41 -700 0.357787955480048)
	(73.6 -700 0.642273012764183)
	(80.6 -700 0.703358761260776)
	(92.1 -700 0.80371391950518)
	(100 -700 0.872653549951335)
	(117 -700 1.02100465344306)
	(134 -700 1.16935575693479)
	(151 -700 1.31770686042652)
	(168 -700 1.46605796391824)
	(185 -700 1.61440906740997)
	(192.9 -700 1.68334869785613)
	(204.5 -700 1.78457650965048)
	(211.4 -700 1.84478960459712)
	(225 -700 1.9634704873905)
	(243.6 -700 2.12578404768145)
	(260.6 -700 2.27413515117318)
	(275 -700 2.39979726236617)
	(287.5 -700 2.50887895611009)
	(292.5 -700 2.55251163360766)
	(0 -650 0)
	(10 -650 8.72653549951335E-02)
	(41 -650 0.357787955480048)
	(73.6 -650 0.642273012764183)
	(80.6 -650 0.703358761260776)
	(92.1 -650 0.80371391950518)
	(100 -650 0.872653549951335)
	(117 -650 1.02100465344306)
	(134 -650 1.16935575693479)
	(151 -650 1.31770686042652)
	(168 -650 1.46605796391824)
	(185 -650 1.61440906740997)
	(192.9 -650 1.68334869785613)
	(204.5 -650 1.78457650965048)
	(211.4 -650 1.84478960459712)
	(225 -650 1.9634704873905)
	(243.6 -650 2.12578404768145)
	(260.6 -650 2.27413515117318)
	(275 -650 2.39979726236617)
	(287.5 -650 2.50887895611009)
	(292.5 -650 2.55251163360766)
	(0 -600 0)
	(10 -600 8.72653549951335E-02)
	(41 -600 0.357787955480048)
	(73.6 -600 0.642273012764183)
	(80.6 -600 0.703358761260776)
	(92.1 -600 0.80371391950518)
	(100 -600 0.872653549951335)
	(117 -600 1.02100465344306)
	(134 -600 1.16935575693479)
	(151 -600 1.31770686042652)
	(168 -600 1.46605796391824)
	(185 -600 1.61440906740997)
	(192.9 -600 1.68334869785613)
	(204.5 -600 1.78457650965048)
	(211.4 -600 1.84478960459712)
	(225 -600 1.9634704873905)
	(243.6 -600 2.12578404768145)
	(260.6 -600 2.27413515117318)
	(275 -600 2.39979726236617)
	(287.5 -600 2.50887895611009)
	(292.5 -600 2.55251163360766)
	(0 -550 0)
	(10 -550 8.72653549951335E-02)
	(41 -550 0.357787955480048)
	(73.6 -550 0.642273012764183)
	(80.6 -550 0.703358761260776)
	(92.1 -550 0.80371391950518)
	(100 -550 0.872653549951335)
	(117 -550 1.02100465344306)
	(134 -550 1.16935575693479)
	(151 -550 1.31770686042652)
	(168 -550 1.46605796391824)
	(185 -550 1.61440906740997)
	(192.9 -550 1.68334869785613)
	(204.5 -550 1.78457650965048)
	(211.4 -550 1.84478960459712)
	(225 -550 1.9634704873905)
	(243.6 -550 2.12578404768145)
	(260.6 -550 2.27413515117318)
	(275 -550 2.39979726236617)
	(287.5 -550 2.50887895611009)
	(292.5 -550 2.55251163360766)
	(0 -500 0)
	(10 -500 8.72653549951335E-02)
	(41 -500 0.357787955480048)
	(73.6 -500 0.642273012764183)
	(80.6 -500 0.703358761260776)
	(92.1 -500 0.80371391950518)
	(100 -500 0.872653549951335)
	(117 -500 1.02100465344306)
	(134 -500 1.16935575693479)
	(151 -500 1.31770686042652)
	(168 -500 1.46605796391824)
	(185 -500 1.61440906740997)
	(192.9 -500 1.68334869785613)
	(204.5 -500 1.78457650965048)
	(211.4 -500 1.84478960459712)
	(225 -500 1.9634704873905)
	(243.6 -500 2.12578404768145)
	(260.6 -500 2.27413515117318)
	(275 -500 2.39979726236617)
	(287.5 -500 2.50887895611009)
	(292.5 -500 2.55251163360766)
	(0 -450 0)
	(10 -450 8.72653549951335E-02)
	(41 -450 0.357787955480048)
	(73.6 -450 0.642273012764183)
	(80.6 -450 0.703358761260776)
	(92.1 -450 0.80371391950518)