/*---------------------------------------------------------------------------*\
| =========                 |                                                 |
| \\      /  F ield         | OpenFOAM: The Open Source CFD Toolbox           |
|  \\    /   O peration     | Version:  1.3                                   |
|   \\  /    A nd           | Web:      http://www.openfoam.org               |
|    \\/     M anipulation  |                                                 |
\*---------------------------------------------------------------------------*/

FoamFile
{
    version         2.0;
    format          ascii;

    root            "";
    case            "";
    instance        "";
    local           "";

    class           dictionary;
    object          delayedNeutronDict;
}

// * * * * * * * * * * * * * * * * * * * * * * * * * * * * * * * * * * * * * //

factor1Name         dn_factor1;
factor0Name         dn_factor0;

groups
(
    first
    {
        lambda		lambda 	[0 0 -1 0 0 0 0] 3.87;
        betaName    dn_beta1;
        lambdaCName dn_lamC1;
    }

    second
    {
        lambda		lambda 	[0 0 -1 0 0 0 0] 1.4;
        betaName    dn_beta2;
        lambdaCName dn_lamC2;
    }

    third
    {
        lambda		lambda 	[0 0 -1 0 0 0 0] 0.311;
        betaName    dn_beta3;
        lambdaCName dn_lamC3;
    }

    fourth
    {
        lambda		lambda 	[0 0 -1 0 0 0 0] 0.116;
        betaName    dn_beta4;
        lambdaCName dn_lamC4;
    }

    fifth
    {
        lambda		lambda 	[0 0 -1 0 0 0 0] 0.03174;
        betaName    dn_beta5;
        lambdaCName dn_lamC5;
    }

    sixth
    {
        lambda		lambda 	[0 0 -1 0 0 0 0] 0.01272;
        betaName    dn_beta6;
        lambdaCName dn_lamC6;
    }
);

// ************************************************************************* //
