/*--------------------------------*- C++ -*----------------------------------*\
| =========                 |                                                 |
| \\      /  F ield         | OpenFOAM: The Open Source CFD Toolbox           |
|  \\    /   O peration     | Version:  1.4.1-dev                             |
|   \\  /    A nd           | Web:      http://www.openfoam.org               |
|    \\/     M anipulation  |                                                 |
\*---------------------------------------------------------------------------*/

FoamFile
{
    version 2.0;
    format ascii;

    root ".";
    case "temperature";
    instance "constant";
    local "";

    class dictionary;
    object temperatureCalculation;
}

// * * * * * * * * * * * * * * * * * * * * * * * * * * * * * * * * * * * * * //

nuclearHeatSource Q''';
moderatorTemperature Tmod;
fuelTemperature Tfuel;
moderatorDensity rhoMod_ [ 1 -3 0 0 0 0 0 ] 1800;
moderatorSpecificHeat cpMod_ [ 0 2 -2 -1 0 0 0 ] 710;
moderatorConductivity kMod_ [ 1 1 -3 -1 0 0 0 ] 5000;
puebh           0;


// ************************************************************************* //
